  300
scf done: ************
 H    -3.055457     2.146574    17.550245
 H     3.055457     2.146574    17.550245
 H    -2.985702    -2.242585    17.550245
 H    -1.210192    -3.532568    17.550245
 H     3.733642     0.059338    17.550245
 H     1.097325     3.569240    17.550245
 H    -1.097325     3.569240    17.550245
 H     1.210192    -3.532568    17.550245
 H    -3.733642     0.059338    17.550245
 H     2.985702    -2.242585    17.550245
 C    -1.480556     3.206948    16.602343
 C    -2.592472     2.399094    16.602343
 C    -3.507505    -0.417091    16.602343
 C    -3.082791    -1.724226    16.602343
 C    -0.687202    -3.464724    16.602343
 C     0.687202    -3.464724    16.602343
 C     3.082791    -1.724226    16.602343
 C     3.507505    -0.417091    16.602343
 C     2.592472     2.399094    16.602343
 C     1.480556     3.206948    16.602343
 C    -2.582247    -2.322681    15.407941
 C    -1.411043    -3.173611    15.407941
 C     1.411043    -3.173611    15.407941
 C     2.582247    -2.322681    15.407941
 C     3.454319     0.361282    15.407941
 C     3.006959     1.738114    15.407941
 C     0.723844     3.396895    15.407941
 C    -0.723844     3.396895    15.407941
 C    -3.006959     1.738114    15.407941
 C    -3.454319     0.361282    15.407941
 C    -1.390545     3.134117    14.181519
 C    -2.551021     2.290982    14.181519
 C    -3.410425    -0.353991    14.181519
 C    -2.967162    -1.718212    14.181519
 C    -0.717214    -3.352896    14.181519
 C     0.717214    -3.352896    14.181519
 C     2.967162    -1.718212    14.181519
 C     3.410425    -0.353991    14.181519
 C     2.551021     2.290982    14.181519
 C     1.390545     3.134117    14.181519
 C    -2.542667    -2.292153    12.939651
 C    -1.394240    -3.126534    12.939651
 C     1.394240    -3.126534    12.939651
 C     2.542667    -2.292153    12.939651
 C     3.404354     0.359849    12.939651
 C     2.965694     1.709906    12.939651
 C     0.709767     3.348933    12.939651
 C    -0.709767     3.348933    12.939651
 C    -2.965694     1.709906    12.939651
 C    -3.404354     0.359849    12.939651
 C    -1.397464     3.142797    11.706158
 C    -2.557137     2.300245    11.706158
 C    -3.420817    -0.357890    11.706158
 C    -2.977862    -1.721167    11.706158
 C    -0.716717    -3.363985    11.706158
 C     0.716717    -3.363985    11.706158
 C     2.977862    -1.721167    11.706158
 C     3.420817    -0.357890    11.706158
 C     2.557137     2.300245    11.706158
 C     1.397464     3.142797    11.706158
 C    -2.557580    -2.301787    10.478368
 C    -1.398794    -3.143694    10.478368
 C     0.716169     3.365493    10.478368
 C    -0.716169     3.365493    10.478368
 C    -2.979465     1.721112    10.478368
 C    -3.422082     0.358877    10.478368
 C     1.398794    -3.143694    10.478368
 C     2.557580    -2.301787    10.478368
 C     3.422082     0.358877    10.478368
 C     2.979465     1.721112    10.478368
 C    -1.399008     3.138707     9.243036
 C    -2.552771     2.300449     9.243036
 C    -3.417405    -0.360621     9.243036
 C    -2.976707    -1.716951     9.243036
 C    -0.713065    -3.361583     9.243036
 C     0.713065    -3.361583     9.243036
 C     2.976707    -1.716951     9.243036
 C     3.417405    -0.360621     9.243036
 C     2.552771     2.300449     9.243036
 C     1.399008     3.138707     9.243036
 C    -2.558323    -2.302098     8.009314
 C    -1.398860    -3.144497     8.009314
 C     1.398860    -3.144497     8.009314
 C     2.558323    -2.302098     8.009314
 C     3.422866     0.358692     8.009314
 C     2.979991     1.721722     8.009314
 C     0.716587     3.366181     8.009314
 C    -0.716587     3.366181     8.009314
 C    -2.979991     1.721722     8.009314
 C    -3.422866     0.358692     8.009314
 C    -1.398771     3.143758     6.780314
 C    -2.557647     2.301785     6.780314
 C    -3.422135    -0.358836     6.780314
 C    -2.979484    -1.721176     6.780314
 C    -0.716225    -3.365530     6.780314
 C     0.716225    -3.365530     6.780314
 C     2.979484    -1.721176     6.780314
 C     3.422135    -0.358836     6.780314
 C     2.557647     2.301785     6.780314
 C     1.398771     3.143758     6.780314
 C     0.713433     3.361489     5.545920
 C    -0.713433     3.361489     5.545920
 C    -2.976503     1.717273     5.545920
 C    -3.417429     0.360242     5.545920
 C    -2.553013    -2.300156     5.545920
 C    -1.398654    -3.138847     5.545920
 C     1.398654    -3.138847     5.545920
 C     2.553013    -2.300156     5.545920
 C     3.417429     0.360242     5.545920
 C     2.976503     1.717273     5.545920
 C    -1.398726     3.143804     4.312077
 C    -2.557705     2.301757     4.312077
 C    -3.422165    -0.358779     4.312077
 C    -2.979475    -1.721240     4.312077
 C    -0.716288    -3.365542     4.312077
 C     0.716288    -3.365542     4.312077
 C     2.979475    -1.721240     4.312077
 C     3.422165    -0.358779     4.312077
 C     2.557705     2.301757     4.312077
 C     1.398726     3.143804     4.312077
 C    -2.557453    -2.301723     3.082659
 C    -1.398772    -3.143553     3.082659
 C     1.398772    -3.143553     3.082659
 C     2.557453    -2.301723     3.082659
 C     3.421941     0.358900     3.082659
 C     2.979365     1.721010     3.082659
 C     0.716104     3.365366     3.082659
 C    -0.716104     3.365366     3.082659
 C    -2.979365     1.721010     3.082659
 C    -3.421941     0.358900     3.082659
 C    -1.398689     3.139311     1.848645
 C    -2.553443     2.300332     1.848645
 C    -3.417881    -0.360132     1.848645
 C    -2.976804    -1.717627     1.848645
 C    -0.713678    -3.361884     1.848645
 C     0.713678    -3.361884     1.848645
 C     2.976804    -1.717627     1.848645
 C     3.417881    -0.360132     1.848645
 C     2.553443     2.300332     1.848645
 C     1.398689     3.139311     1.848645
 C     0.716136     3.365397     0.614767
 C    -0.716136     3.365397     0.614767
 C    -2.979385     1.721050     0.614767
 C    -3.421981     0.358880     0.614767
 C    -2.557497    -2.301730     0.614767
 C    -1.398765    -3.143597     0.614767
 C     1.398765    -3.143597     0.614767
 C     2.557497    -2.301730     0.614767
 C     3.421981     0.358880     0.614767
 C     2.979385     1.721050     0.614767
 C    -1.398765     3.143597    -0.614767
 C    -2.557497     2.301730    -0.614767
 C    -3.421981    -0.358880    -0.614767
 C    -2.979385    -1.721050    -0.614767
 C    -0.716136    -3.365397    -0.614767
 C     0.716136    -3.365397    -0.614767
 C     2.979385    -1.721050    -0.614767
 C     3.421981    -0.358880    -0.614767
 C     2.557497     2.301730    -0.614767
 C     1.398765     3.143597    -0.614767
 C     0.713678     3.361884    -1.848645
 C    -0.713678     3.361884    -1.848645
 C    -2.976804     1.717627    -1.848645
 C    -3.417881     0.360132    -1.848645
 C    -2.553443    -2.300332    -1.848645
 C    -1.398689    -3.139311    -1.848645
 C     1.398689    -3.139311    -1.848645
 C     2.553443    -2.300332    -1.848645
 C     3.417881     0.360132    -1.848645
 C     2.976804     1.717627    -1.848645
 C    -1.398772     3.143553    -3.082659
 C    -2.557453     2.301723    -3.082659
 C    -3.421941    -0.358900    -3.082659
 C    -2.979365    -1.721010    -3.082659
 C    -0.716104    -3.365366    -3.082659
 C     0.716104    -3.365366    -3.082659
 C     2.979365    -1.721010    -3.082659
 C     3.421941    -0.358900    -3.082659
 C     2.557453     2.301723    -3.082659
 C     1.398772     3.143553    -3.082659
 C     0.716288     3.365542    -4.312077
 C    -0.716288     3.365542    -4.312077
 C    -2.979475     1.721240    -4.312077
 C    -3.422165     0.358779    -4.312077
 C    -2.557705    -2.301757    -4.312077
 C    -1.398726    -3.143804    -4.312077
 C     1.398726    -3.143804    -4.312077
 C     2.557705    -2.301757    -4.312077
 C     3.422165     0.358779    -4.312077
 C     2.979475     1.721240    -4.312077
 C    -1.398654     3.138847    -5.545920
 C    -2.553013     2.300156    -5.545920
 C    -3.417429    -0.360242    -5.545920
 C    -2.976503    -1.717273    -5.545920
 C    -0.713433    -3.361489    -5.545920
 C     0.713433    -3.361489    -5.545920
 C     2.976503    -1.717273    -5.545920
 C     3.417429    -0.360242    -5.545920
 C     2.553013     2.300156    -5.545920
 C     1.398654     3.138847    -5.545920
 C     0.716225     3.365530    -6.780314
 C    -0.716225     3.365530    -6.780314
 C    -2.979484     1.721176    -6.780314
 C    -3.422135     0.358836    -6.780314
 C    -2.557647    -2.301785    -6.780314
 C    -1.398771    -3.143758    -6.780314
 C     1.398771    -3.143758    -6.780314
 C     2.557647    -2.301785    -6.780314
 C     3.422135     0.358836    -6.780314
 C     2.979484     1.721176    -6.780314
 C    -1.398860     3.144497    -8.009314
 C    -2.558323     2.302098    -8.009314
 C    -3.422866    -0.358692    -8.009314
 C    -2.979991    -1.721722    -8.009314
 C    -0.716587    -3.366181    -8.009314
 C     0.716587    -3.366181    -8.009314
 C     2.979991    -1.721722    -8.009314
 C     3.422866    -0.358692    -8.009314
 C     2.558323     2.302098    -8.009314
 C     1.398860     3.144497    -8.009314
 C     0.713065     3.361583    -9.243036
 C    -0.713065     3.361583    -9.243036
 C    -2.976707     1.716951    -9.243036
 C    -3.417405     0.360621    -9.243036
 C    -2.552771    -2.300449    -9.243036
 C    -1.399008    -3.138707    -9.243036
 C     1.399008    -3.138707    -9.243036
 C     2.552771    -2.300449    -9.243036
 C     3.417405     0.360621    -9.243036
 C     2.976707     1.716951    -9.243036
 C    -1.398794     3.143694   -10.478368
 C    -2.557580     2.301787   -10.478368
 C    -3.422082    -0.358877   -10.478368
 C    -2.979465    -1.721112   -10.478368
 C    -0.716169    -3.365493   -10.478368
 C     0.716169    -3.365493   -10.478368
 C     2.979465    -1.721112   -10.478368
 C     3.422082    -0.358877   -10.478368
 C     2.557580     2.301787   -10.478368
 C     1.398794     3.143694   -10.478368
 C     0.716717     3.363985   -11.706158
 C    -0.716717     3.363985   -11.706158
 C    -2.977862     1.721167   -11.706158
 C    -3.420817     0.357890   -11.706158
 C    -2.557137    -2.300245   -11.706158
 C    -1.397464    -3.142797   -11.706158
 C     1.397464    -3.142797   -11.706158
 C     2.557137    -2.300245   -11.706158
 C     3.420817     0.357890   -11.706158
 C     2.977862     1.721167   -11.706158
 C    -1.394240     3.126534   -12.939651
 C    -2.542667     2.292153   -12.939651
 C    -3.404354    -0.359849   -12.939651
 C    -2.965694    -1.709906   -12.939651
 C    -0.709767    -3.348933   -12.939651
 C     0.709767    -3.348933   -12.939651
 C     2.965694    -1.709906   -12.939651
 C     3.404354    -0.359849   -12.939651
 C     2.542667     2.292153   -12.939651
 C     1.394240     3.126534   -12.939651
 C     0.717214     3.352896   -14.181519
 C    -0.717214     3.352896   -14.181519
 C    -2.967162     1.718212   -14.181519
 C    -3.410425     0.353991   -14.181519
 C    -2.551021    -2.290982   -14.181519
 C    -1.390545    -3.134117   -14.181519
 C     1.390545    -3.134117   -14.181519
 C     2.551021    -2.290982   -14.181519
 C     3.410425     0.353991   -14.181519
 C     2.967162     1.718212   -14.181519
 C    -1.411043     3.173611   -15.407941
 C    -2.582247     2.322681   -15.407941
 C    -3.454319    -0.361282   -15.407941
 C    -3.006959    -1.738114   -15.407941
 C    -0.723844    -3.396895   -15.407941
 C     0.723844    -3.396895   -15.407941
 C     3.006959    -1.738114   -15.407941
 C     3.454319    -0.361282   -15.407941
 C     2.582247     2.322681   -15.407941
 C     1.411043     3.173611   -15.407941
 C     0.687202     3.464724   -16.602343
 C    -0.687202     3.464724   -16.602343
 C    -3.082791     1.724226   -16.602343
 C    -3.507505     0.417091   -16.602343
 C    -2.592472    -2.399094   -16.602343
 C    -1.480556    -3.206948   -16.602343
 C     1.480556    -3.206948   -16.602343
 C     2.592472    -2.399094   -16.602343
 C     3.507505     0.417091   -16.602343
 C     3.082791     1.724226   -16.602343
 H     1.210192     3.532568   -17.550245
 H    -1.210192     3.532568   -17.550245
 H    -2.985702     2.242585   -17.550245
 H    -3.733642    -0.059338   -17.550245
 H    -3.055457    -2.146574   -17.550245
 H    -1.097325    -3.569240   -17.550245
 H     1.097325    -3.569240   -17.550245
 H     3.055457    -2.146574   -17.550245
 H     3.733642    -0.059338   -17.550245
 H     2.985702     2.242585   -17.550245
