  260
scf done: -9155.051175
 H     3.744508     0.057628    15.101038
 H    -1.211924    -3.543431    15.101038
 H     1.102310     3.579047    15.101038
 H    -1.102310     3.579047    15.101038
 H    -2.995498    -2.247589    15.101038
 H     1.211924    -3.543431    15.101038
 H     2.995498    -2.247589    15.101038
 H    -3.063244     2.154345    15.101038
 H     3.063244     2.154345    15.101038
 H    -3.744508     0.057628    15.101038
 C     3.079590    -1.720588    14.156677
 C     3.502776    -0.418153    14.156677
 C     2.588022     2.397173    14.156677
 C     1.480104     3.202122    14.156677
 C    -1.480104     3.202122    14.156677
 C    -2.588022     2.397173    14.156677
 C    -3.502776    -0.418153    14.156677
 C    -3.079590    -1.720588    14.156677
 C    -0.684731    -3.460555    14.156677
 C     0.684731    -3.460555    14.156677
 C     0.718963     3.388180    12.957079
 C    -0.718963     3.388180    12.957079
 C    -3.000179     1.730779    12.957079
 C    -3.444523     0.363231    12.957079
 C    -2.573176    -2.318500    12.957079
 C    -1.409869    -3.163691    12.957079
 C     1.409869    -3.163691    12.957079
 C     2.573176    -2.318500    12.957079
 C     3.444523     0.363231    12.957079
 C     3.000179     1.730779    12.957079
 C     2.966594    -1.718223    11.728655
 C     3.409971    -0.353649    11.728655
 C     2.550855     2.290438    11.728655
 C     1.390079     3.133791    11.728655
 C    -1.390079     3.133791    11.728655
 C    -2.550855     2.290438    11.728655
 C    -3.409971    -0.353649    11.728655
 C    -2.966594    -1.718223    11.728655
 C    -0.717399    -3.352358    11.728655
 C     0.717399    -3.352358    11.728655
 C     0.708658     3.346410    10.489494
 C    -0.708658     3.346410    10.489494
 C    -2.963638     1.708071    10.489494
 C    -3.401612     0.360124    10.489494
 C    -2.540287    -2.290764    10.489494
 C    -1.393654    -3.123841    10.489494
 C     1.393654    -3.123841    10.489494
 C     2.540287    -2.290764    10.489494
 C     3.401612     0.360124    10.489494
 C     2.963638     1.708071    10.489494
 C     2.972197    -1.714660     9.251457
 C     3.412410    -0.359824     9.251457
 C     2.549198     2.296868     9.251457
 C     1.396706     3.134203     9.251457
 C    -1.396706     3.134203     9.251457
 C    -2.549198     2.296868     9.251457
 C    -3.412410    -0.359824     9.251457
 C    -2.972197    -1.714660     9.251457
 C    -0.712280    -3.356586     9.251457
 C     0.712280    -3.356586     9.251457
 C     0.716007     3.364117     8.020699
 C    -0.716007     3.364117     8.020699
 C     1.398116    -3.142486     8.020699
 C     2.556640    -2.300769     8.020699
 C     3.420723     0.358606     8.020699
 C     2.978207     1.720532     8.020699
 C    -2.978207     1.720532     8.020699
 C    -3.420723     0.358606     8.020699
 C    -2.556640    -2.300769     8.020699
 C    -1.398116    -3.142486     8.020699
 C     2.974930    -1.715662     6.788441
 C     3.415209    -0.360620     6.788441
 C     2.550995     2.299158     6.788441
 C     1.398328     3.136619     6.788441
 C    -1.398328     3.136619     6.788441
 C    -2.550995     2.299158     6.788441
 C    -3.415209    -0.360620     6.788441
 C    -2.974930    -1.715662     6.788441
 C    -0.712387    -3.359495     6.788441
 C     0.712387    -3.359495     6.788441
 C     0.711931     3.358338     5.551044
 C    -0.711931     3.358338     5.551044
 C    -2.973970     1.714870     5.551044
 C    -3.413968     0.360696     5.551044
 C    -2.549946    -2.298490     5.551044
 C    -1.398017    -3.135415     5.551044
 C     1.398017    -3.135415     5.551044
 C     2.549946    -2.298490     5.551044
 C     3.413968     0.360696     5.551044
 C     2.973970     1.714870     5.551044
 C     2.977672    -1.719728     4.317759
 C     3.419818    -0.358943     4.317759
 C     2.555709     2.300509     4.317759
 C     1.398157     3.141520     4.317759
 C    -1.398157     3.141520     4.317759
 C    -2.555709     2.300509     4.317759
 C    -3.419818    -0.358943     4.317759
 C    -2.977672    -1.719728     4.317759
 C    -0.715407    -3.363359     4.317759
 C     0.715407    -3.363359     4.317759
 C     1.398062    -3.138439     3.086729
 C     2.552808    -2.299467     3.086729
 C     3.416858     0.359805     3.086729
 C     2.975784     1.717291     3.086729
 C     0.713672     3.360811     3.086729
 C    -0.713672     3.360811     3.086729
 C    -2.975784     1.717291     3.086729
 C    -3.416858     0.359805     3.086729
 C    -2.552808    -2.299467     3.086729
 C    -1.398062    -3.138439     3.086729
 C     2.973356    -1.714176     1.850358
 C     3.413063    -0.360897     1.850358
 C     2.549096     2.298120     1.850358
 C     1.397928     3.134493     1.850358
 C    -1.397928     3.134493     1.850358
 C    -2.549096     2.298120     1.850358
 C    -3.413063    -0.360897     1.850358
 C    -2.973356    -1.714176     1.850358
 C    -0.711461    -3.357539     1.850358
 C     0.711461    -3.357539     1.850358
 C     0.714616     3.362166     0.615339
 C    -0.714616     3.362166     0.615339
 C    -2.976782     1.718607     0.615339
 C    -3.418439     0.359326     0.615339
 C    -2.554369    -2.300009     0.615339
 C    -1.398095    -3.140091     0.615339
 C     1.398095    -3.140091     0.615339
 C     2.554369    -2.300009     0.615339
 C     3.418439     0.359326     0.615339
 C     2.976782     1.718607     0.615339
 C     2.976782    -1.718607    -0.615339
 C     3.418439    -0.359326    -0.615339
 C     2.554369     2.300009    -0.615339
 C     1.398095     3.140091    -0.615339
 C    -1.398095     3.140091    -0.615339
 C    -2.554369     2.300009    -0.615339
 C    -3.418439    -0.359326    -0.615339
 C    -2.976782    -1.718607    -0.615339
 C    -0.714616    -3.362166    -0.615339
 C     0.714616    -3.362166    -0.615339
 C     1.397928    -3.134493    -1.850358
 C     2.549096    -2.298120    -1.850358
 C     3.413063     0.360897    -1.850358
 C     2.973356     1.714176    -1.850358
 C     0.711461     3.357539    -1.850358
 C    -0.711461     3.357539    -1.850358
 C    -2.973356     1.714176    -1.850358
 C    -3.413063     0.360897    -1.850358
 C    -2.549096    -2.298120    -1.850358
 C    -1.397928    -3.134493    -1.850358
 C     2.975784    -1.717291    -3.086729
 C     3.416858    -0.359805    -3.086729
 C     2.552808     2.299467    -3.086729
 C     1.398062     3.138439    -3.086729
 C    -1.398062     3.138439    -3.086729
 C    -2.552808     2.299467    -3.086729
 C    -3.416858    -0.359805    -3.086729
 C    -2.975784    -1.717291    -3.086729
 C    -0.713672    -3.360811    -3.086729
 C     0.713672    -3.360811    -3.086729
 C     1.398157    -3.141520    -4.317759
 C     2.555709    -2.300509    -4.317759
 C     3.419818     0.358943    -4.317759
 C     2.977672     1.719728    -4.317759
 C     0.715407     3.363359    -4.317759
 C    -0.715407     3.363359    -4.317759
 C    -2.977672     1.719728    -4.317759
 C    -3.419818     0.358943    -4.317759
 C    -2.555709    -2.300509    -4.317759
 C    -1.398157    -3.141520    -4.317759
 C     2.973970    -1.714870    -5.551044
 C     3.413968    -0.360696    -5.551044
 C     2.549946     2.298490    -5.551044
 C     1.398017     3.135415    -5.551044
 C    -1.398017     3.135415    -5.551044
 C    -2.549946     2.298490    -5.551044
 C    -3.413968    -0.360696    -5.551044
 C    -2.973970    -1.714870    -5.551044
 C    -0.711931    -3.358338    -5.551044
 C     0.711931    -3.358338    -5.551044
 C     1.398328    -3.136619    -6.788441
 C     2.550995    -2.299158    -6.788441
 C     3.415209     0.360620    -6.788441
 C     2.974930     1.715662    -6.788441
 C     0.712387     3.359495    -6.788441
 C    -0.712387     3.359495    -6.788441
 C    -2.974930     1.715662    -6.788441
 C    -3.415209     0.360620    -6.788441
 C    -2.550995    -2.299158    -6.788441
 C    -1.398328    -3.136619    -6.788441
 C     2.978207    -1.720532    -8.020699
 C     3.420723    -0.358606    -8.020699
 C     2.556640     2.300769    -8.020699
 C     1.398116     3.142486    -8.020699
 C    -1.398116     3.142486    -8.020699
 C    -2.556640     2.300769    -8.020699
 C    -3.420723    -0.358606    -8.020699
 C    -2.978207    -1.720532    -8.020699
 C    -0.716007    -3.364117    -8.020699
 C     0.716007    -3.364117    -8.020699
 C     1.396706    -3.134203    -9.251457
 C     2.549198    -2.296868    -9.251457
 C     3.412410     0.359824    -9.251457
 C     2.972197     1.714660    -9.251457
 C     0.712280     3.356586    -9.251457
 C    -0.712280     3.356586    -9.251457
 C    -2.972197     1.714660    -9.251457
 C    -3.412410     0.359824    -9.251457
 C    -2.549198    -2.296868    -9.251457
 C    -1.396706    -3.134203    -9.251457
 C     2.963638    -1.708071   -10.489494
 C     3.401612    -0.360124   -10.489494
 C     2.540287     2.290764   -10.489494
 C     1.393654     3.123841   -10.489494
 C    -1.393654     3.123841   -10.489494
 C    -2.540287     2.290764   -10.489494
 C    -3.401612    -0.360124   -10.489494
 C    -2.963638    -1.708071   -10.489494
 C    -0.708658    -3.346410   -10.489494
 C     0.708658    -3.346410   -10.489494
 C     1.390079    -3.133791   -11.728655
 C     2.550855    -2.290438   -11.728655
 C     3.409971     0.353649   -11.728655
 C     2.966594     1.718223   -11.728655
 C     0.717399     3.352358   -11.728655
 C    -0.717399     3.352358   -11.728655
 C    -2.966594     1.718223   -11.728655
 C    -3.409971     0.353649   -11.728655
 C    -2.550855    -2.290438   -11.728655
 C    -1.390079    -3.133791   -11.728655
 C     3.000179    -1.730779   -12.957079
 C     3.444523    -0.363231   -12.957079
 C     2.573176     2.318500   -12.957079
 C     1.409869     3.163691   -12.957079
 C    -1.409869     3.163691   -12.957079
 C    -2.573176     2.318500   -12.957079
 C    -3.444523    -0.363231   -12.957079
 C    -3.000179    -1.730779   -12.957079
 C    -0.718963    -3.388180   -12.957079
 C     0.718963    -3.388180   -12.957079
 C     1.480104    -3.202122   -14.156677
 C     2.588022    -2.397173   -14.156677
 C     3.502776     0.418153   -14.156677
 C     3.079590     1.720588   -14.156677
 C     0.684731     3.460555   -14.156677
 C    -0.684731     3.460555   -14.156677
 C    -3.079590     1.720588   -14.156677
 C    -3.502776     0.418153   -14.156677
 C    -2.588022    -2.397173   -14.156677
 C    -1.480104    -3.202122   -14.156677
 H     1.102310    -3.579047   -15.101038
 H     3.063244    -2.154345   -15.101038
 H     3.744508    -0.057628   -15.101038
 H     2.995498     2.247589   -15.101038
 H     1.211924     3.543431   -15.101038
 H    -1.211924     3.543431   -15.101038
 H    -2.995498     2.247589   -15.101038
 H    -3.744508    -0.057628   -15.101038
 H    -3.063244    -2.154345   -15.101038
 H    -1.102310    -3.579047   -15.101038
