  100
scf done: -3059.564935
 H     3.749144     0.056941     5.231844
 H    -1.212704    -3.548052     5.231844
 H     1.104395     3.583244     5.231844
 H    -1.104395     3.583244     5.231844
 H    -2.999652    -2.249758     5.231844
 H     1.212704    -3.548052     5.231844
 H     2.999652    -2.249758     5.231844
 H    -3.066591     2.157625     5.231844
 H     3.066591     2.157625     5.231844
 H    -3.749144     0.056941     5.231844
 C     3.078496    -1.719090     4.288953
 C     3.501011    -0.418721     4.288953
 C     2.586259     2.396595     4.288953
 C     1.480100     3.200267     4.288953
 C    -1.480100     3.200267     4.288953
 C    -2.586259     2.396595     4.288953
 C    -3.501011    -0.418721     4.288953
 C    -3.078496    -1.719090     4.288953
 C    -0.683644    -3.459051     4.288953
 C     0.683644    -3.459051     4.288953
 C     0.716651     3.385111     3.087000
 C    -0.716651     3.385111     3.087000
 C    -2.997974     1.727632     3.087000
 C    -3.440889     0.364481     3.087000
 C    -2.569501    -2.317375     3.087000
 C    -1.409935    -3.159849     3.087000
 C     1.409935    -3.159849     3.087000
 C     2.569501    -2.317375     3.087000
 C     3.440889     0.364481     3.087000
 C     2.997974     1.727632     3.087000
 C     2.966742    -1.718753     1.857578
 C     3.410402    -0.353307     1.857578
 C     2.551404     2.290415     1.857578
 C     1.389887     3.134307     1.857578
 C    -1.389887     3.134307     1.857578
 C    -2.551404     2.290415     1.857578
 C    -3.410402    -0.353307     1.857578
 C    -2.966742    -1.718753     1.857578
 C    -0.717857    -3.352663     1.857578
 C     0.717857    -3.352663     1.857578
 C     0.707729     3.342514     0.620364
 C    -0.707729     3.342514     0.620364
 C    -2.960219     1.705984     0.620364
 C    -3.397620     0.359804     0.620364
 C    -2.537245    -2.288158     0.620364
 C    -1.392116    -3.120143     0.620364
 C     1.392116    -3.120143     0.620364
 C     2.537245    -2.288158     0.620364
 C     3.397620     0.359804     0.620364
 C     2.960219     1.705984     0.620364
 C     2.960219    -1.705984    -0.620364
 C     3.397620    -0.359804    -0.620364
 C     2.537245     2.288158    -0.620364
 C     1.392116     3.120143    -0.620364
 C    -1.392116     3.120143    -0.620364
 C    -2.537245     2.288158    -0.620364
 C    -3.397620    -0.359804    -0.620364
 C    -2.960219    -1.705984    -0.620364
 C    -0.707729    -3.342514    -0.620364
 C     0.707729    -3.342514    -0.620364
 C     0.717857     3.352663    -1.857578
 C    -0.717857     3.352663    -1.857578
 C     1.389887    -3.134307    -1.857578
 C     2.551404    -2.290415    -1.857578
 C     3.410402     0.353307    -1.857578
 C     2.966742     1.718753    -1.857578
 C    -2.966742     1.718753    -1.857578
 C    -3.410402     0.353307    -1.857578
 C    -2.551404    -2.290415    -1.857578
 C    -1.389887    -3.134307    -1.857578
 C     2.997974    -1.727632    -3.087000
 C     3.440889    -0.364481    -3.087000
 C     2.569501     2.317375    -3.087000
 C     1.409935     3.159849    -3.087000
 C    -1.409935     3.159849    -3.087000
 C    -2.569501     2.317375    -3.087000
 C    -3.440889    -0.364481    -3.087000
 C    -2.997974    -1.727632    -3.087000
 C    -0.716651    -3.385111    -3.087000
 C     0.716651    -3.385111    -3.087000
 C     0.683644     3.459051    -4.288953
 C    -0.683644     3.459051    -4.288953
 C    -3.078496     1.719090    -4.288953
 C    -3.501011     0.418721    -4.288953
 C    -2.586259    -2.396595    -4.288953
 C    -1.480100    -3.200267    -4.288953
 C     1.480100    -3.200267    -4.288953
 C     2.586259    -2.396595    -4.288953
 C     3.501011     0.418721    -4.288953
 C     3.078496     1.719090    -4.288953
 H     1.212704     3.548052    -5.231844
 H    -1.212704     3.548052    -5.231844
 H    -2.999652     2.249758    -5.231844
 H    -3.749144    -0.056941    -5.231844
 H    -3.066591    -2.157625    -5.231844
 H    -1.104395    -3.583244    -5.231844
 H     1.104395    -3.583244    -5.231844
 H     3.066591    -2.157625    -5.231844
 H     3.749144    -0.056941    -5.231844
 H     2.999652     2.249758    -5.231844
