  220
scf done: -7631.182663
 H    -3.059939     2.151039    12.628333
 H     3.059939     2.151039    12.628333
 H    -2.991333    -2.245467    12.628333
 H    -1.211194    -3.538814    12.628333
 H     3.739892     0.058360    12.628333
 H     1.100186     3.574883    12.628333
 H    -1.100186     3.574883    12.628333
 H     1.211194    -3.538814    12.628333
 H    -3.739892     0.058360    12.628333
 H     2.991333    -2.245467    12.628333
 C    -1.480205     3.203807    11.682538
 C    -2.589593     2.397790    11.682538
 C    -3.504410    -0.417728    11.682538
 C    -3.080662    -1.721891    11.682538
 C    -0.685639    -3.461977    11.682538
 C     0.685639    -3.461977    11.682538
 C     3.080662    -1.721891    11.682538
 C     3.504410    -0.417728    11.682538
 C     2.589593     2.397790    11.682538
 C     1.480205     3.203807    11.682538
 C    -2.576879    -2.320231    10.484805
 C    -1.410371    -3.167748    10.484805
 C     1.410371    -3.167748    10.484805
 C     2.576879    -2.320231    10.484805
 C     3.448536     0.362455    10.484805
 C     3.002970     1.733767    10.484805
 C     0.720941     3.391758    10.484805
 C    -0.720941     3.391758    10.484805
 C    -3.002970     1.733767    10.484805
 C    -3.448536     0.362455    10.484805
 C    -1.390267     3.134232     9.257506
 C    -2.551216     2.290753     9.257506
 C    -3.410448    -0.353691     9.257506
 C    -2.967005    -1.718469     9.257506
 C    -0.717506    -3.352825     9.257506
 C     0.717506    -3.352825     9.257506
 C     2.967005    -1.718469     9.257506
 C     3.410448    -0.353691     9.257506
 C     2.551216     2.290753     9.257506
 C     1.390267     3.134232     9.257506
 C    -2.540688    -2.291095     8.017189
 C    -1.393845    -3.124325     8.017189
 C     1.393845    -3.124325     8.017189
 C     2.540688    -2.291095     8.017189
 C     3.402131     0.360156     8.017189
 C     2.964076     1.708350     8.017189
 C     0.708788     3.346913     8.017189
 C    -0.708788     3.346913     8.017189
 C    -2.964076     1.708350     8.017189
 C    -3.402131     0.360156     8.017189
 C    -1.396999     3.137737     6.780463
 C    -2.552469     2.298239     6.780463
 C    -3.415861    -0.359011     6.780463
 C    -2.974511    -1.717347     6.780463
 C    -0.714120    -3.359618     6.780463
 C     0.714120    -3.359618     6.780463
 C     2.974511    -1.717347     6.780463
 C     3.415861    -0.359011     6.780463
 C     2.552469     2.298239     6.780463
 C     1.396999     3.137737     6.780463
 C    -2.557582    -2.301337     5.551498
 C    -1.398365    -3.143557     5.551498
 C     0.716436     3.365130     5.551498
 C    -0.716436     3.365130     5.551498
 C    -2.979038     1.721253     5.551498
 C    -3.421819     0.358511     5.551498
 C     1.398365    -3.143557     5.551498
 C     2.557582    -2.301337     5.551498
 C     3.421819     0.358511     5.551498
 C     2.979038     1.721253     5.551498
 C    -1.398551     3.136610     4.318079
 C    -2.550917     2.299367     4.318079
 C    -3.415269    -0.360835     4.318079
 C    -2.975104    -1.715523     4.318079
 C    -0.712201    -3.359618     4.318079
 C     0.712201    -3.359618     4.318079
 C     2.975104    -1.715523     4.318079
 C     3.415269    -0.360835     4.318079
 C     2.550917     2.299367     4.318079
 C     1.398551     3.136610     4.318079
 C    -2.553139    -2.299913     3.081165
 C    -1.398384    -3.138891     3.081165
 C     1.398384    -3.138891     3.081165
 C     2.553139    -2.299913     3.081165
 C     3.417387     0.359971     3.081165
 C     2.976310     1.717467     3.081165
 C     0.713678     3.361366     3.081165
 C    -0.713678     3.361366     3.081165
 C    -2.976310     1.717467     3.081165
 C    -3.417387     0.359971     3.081165
 C    -1.398319     3.143591     1.850428
 C    -2.557628     2.301304     1.850428
 C    -3.421837    -0.358458     1.850428
 C    -2.979021    -1.721307     1.850428
 C    -0.716492    -3.365130     1.850428
 C     0.716492    -3.365130     1.850428
 C     2.979021    -1.721307     1.850428
 C     3.421837    -0.358458     1.850428
 C     2.557628     2.301304     1.850428
 C     1.398319     3.143591     1.850428
 C     0.712932     3.360106     0.618503
 C    -0.712932     3.360106     0.618503
 C    -2.975343     1.716368     0.618503
 C    -3.415959     0.360292     0.618503
 C    -2.551794    -2.299332     0.618503
 C    -1.398247    -3.137433     0.618503
 C     1.398247    -3.137433     0.618503
 C     2.551794    -2.299332     0.618503
 C     3.415959     0.360292     0.618503
 C     2.975343     1.716368     0.618503
 C    -1.398247     3.137433    -0.618503
 C    -2.551794     2.299332    -0.618503
 C    -3.415959    -0.360292    -0.618503
 C    -2.975343    -1.716368    -0.618503
 C    -0.712932    -3.360106    -0.618503
 C     0.712932    -3.360106    -0.618503
 C     2.975343    -1.716368    -0.618503
 C     3.415959    -0.360292    -0.618503
 C     2.551794     2.299332    -0.618503
 C     1.398247     3.137433    -0.618503
 C    -2.557628    -2.301304    -1.850428
 C    -1.398319    -3.143591    -1.850428
 C     1.398319    -3.143591    -1.850428
 C     2.557628    -2.301304    -1.850428
 C     3.421837     0.358458    -1.850428
 C     2.979021     1.721307    -1.850428
 C     0.716492     3.365130    -1.850428
 C    -0.716492     3.365130    -1.850428
 C    -2.979021     1.721307    -1.850428
 C    -3.421837     0.358458    -1.850428
 C    -1.398384     3.138891    -3.081165
 C    -2.553139     2.299913    -3.081165
 C    -3.417387    -0.359971    -3.081165
 C    -2.976310    -1.717467    -3.081165
 C    -0.713678    -3.361366    -3.081165
 C     0.713678    -3.361366    -3.081165
 C     2.976310    -1.717467    -3.081165
 C     3.417387    -0.359971    -3.081165
 C     2.553139     2.299913    -3.081165
 C     1.398384     3.138891    -3.081165
 C     0.712201     3.359618    -4.318079
 C    -0.712201     3.359618    -4.318079
 C    -2.975104     1.715523    -4.318079
 C    -3.415269     0.360835    -4.318079
 C    -2.550917    -2.299367    -4.318079
 C    -1.398551    -3.136610    -4.318079
 C     1.398551    -3.136610    -4.318079
 C     2.550917    -2.299367    -4.318079
 C     3.415269     0.360835    -4.318079
 C     2.975104     1.715523    -4.318079
 C    -1.398365     3.143557    -5.551498
 C    -2.557582     2.301337    -5.551498
 C    -3.421819    -0.358511    -5.551498
 C    -2.979038    -1.721253    -5.551498
 C    -0.716436    -3.365130    -5.551498
 C     0.716436    -3.365130    -5.551498
 C     2.979038    -1.721253    -5.551498
 C     3.421819    -0.358511    -5.551498
 C     2.557582     2.301337    -5.551498
 C     1.398365     3.143557    -5.551498
 C     0.714120     3.359618    -6.780463
 C    -0.714120     3.359618    -6.780463
 C    -2.974511     1.717347    -6.780463
 C    -3.415861     0.359011    -6.780463
 C    -2.552469    -2.298239    -6.780463
 C    -1.396999    -3.137737    -6.780463
 C     1.396999    -3.137737    -6.780463
 C     2.552469    -2.298239    -6.780463
 C     3.415861     0.359011    -6.780463
 C     2.974511     1.717347    -6.780463
 C    -1.393845     3.124325    -8.017189
 C    -2.540688     2.291095    -8.017189
 C    -3.402131    -0.360156    -8.017189
 C    -2.964076    -1.708350    -8.017189
 C    -0.708788    -3.346913    -8.017189
 C     0.708788    -3.346913    -8.017189
 C     2.964076    -1.708350    -8.017189
 C     3.402131    -0.360156    -8.017189
 C     2.540688     2.291095    -8.017189
 C     1.393845     3.124325    -8.017189
 C     0.717506     3.352825    -9.257506
 C    -0.717506     3.352825    -9.257506
 C    -2.967005     1.718469    -9.257506
 C    -3.410448     0.353691    -9.257506
 C    -2.551216    -2.290753    -9.257506
 C    -1.390267    -3.134232    -9.257506
 C     1.390267    -3.134232    -9.257506
 C     2.551216    -2.290753    -9.257506
 C     3.410448     0.353691    -9.257506
 C     2.967005     1.718469    -9.257506
 C    -1.410371     3.167748   -10.484805
 C    -2.576879     2.320231   -10.484805
 C    -3.448536    -0.362455   -10.484805
 C    -3.002970    -1.733767   -10.484805
 C    -0.720941    -3.391758   -10.484805
 C     0.720941    -3.391758   -10.484805
 C     3.002970    -1.733767   -10.484805
 C     3.448536    -0.362455   -10.484805
 C     2.576879     2.320231   -10.484805
 C     1.410371     3.167748   -10.484805
 C     0.685639     3.461977   -11.682538
 C    -0.685639     3.461977   -11.682538
 C    -3.080662     1.721891   -11.682538
 C    -3.504410     0.417728   -11.682538
 C    -2.589593    -2.397790   -11.682538
 C    -1.480205    -3.203807   -11.682538
 C     1.480205    -3.203807   -11.682538
 C     2.589593    -2.397790   -11.682538
 C     3.504410     0.417728   -11.682538
 C     3.080662     1.721891   -11.682538
 H     1.211194     3.538814   -12.628333
 H    -1.211194     3.538814   -12.628333
 H    -2.991333     2.245467   -12.628333
 H    -3.739892    -0.058360   -12.628333
 H    -3.059939    -2.151039   -12.628333
 H    -1.100186    -3.574883   -12.628333
 H     1.100186    -3.574883   -12.628333
 H     3.059939    -2.151039   -12.628333
 H     3.739892    -0.058360   -12.628333
 H     2.991333     2.245467   -12.628333
