  145
scf done: -4854.654830
 H     3.783594     0.051981     7.714212
 H    -1.218632    -3.582349     7.714212
 H     1.119758     3.614475     7.714212
 H    -1.119758     3.614475     7.714212
 H    -3.030438    -2.265995     7.714212
 H     1.218632    -3.582349     7.714212
 H     3.030438    -2.265995     7.714212
 H    -3.091546     2.181887     7.714212
 H     3.091546     2.181887     7.714212
 H    -3.783594     0.051981     7.714212
 C     3.090600    -1.723188     6.777129
 C     3.513213    -0.422521     6.777129
 C     2.593897     2.406841     6.777129
 C     1.487484     3.210698     6.777129
 C    -1.487484     3.210698     6.777129
 C    -2.593897     2.406841     6.777129
 C    -3.513213    -0.422521     6.777129
 C    -3.090600    -1.723188     6.777129
 C    -0.683801    -3.471830     6.777129
 C     0.683801    -3.471830     6.777129
 C     0.716561     3.392449     5.566743
 C    -0.716561     3.392449     5.566743
 C    -3.004982     1.729814     5.566743
 C    -3.447840     0.366835     5.566743
 C    -2.573741    -2.323365     5.566743
 C    -1.414322    -3.165733     5.566743
 C     1.414322    -3.165733     5.566743
 C     2.573741    -2.323365     5.566743
 C     3.447840     0.366835     5.566743
 C     3.004982     1.729814     5.566743
 C     2.979255    -1.727061     4.334297
 C     3.425409    -0.353940     4.334297
 C     2.563173     2.299749     4.334297
 C     1.395127     3.148384     4.334297
 C    -1.395127     3.148384     4.334297
 C    -2.563173     2.299749     4.334297
 C    -3.425409    -0.353940     4.334297
 C    -2.979255    -1.727061     4.334297
 C    -0.721892    -3.367131     4.334297
 C     0.721892    -3.367131     4.334297
 C     0.710658     3.356910     3.096992
 C    -0.710658     3.356910     3.096992
 C    -2.973006     1.713218     3.096992
 C    -3.412216     0.361466     3.096992
 C    -2.548077    -2.298083     3.096992
 C    -1.398208    -3.133512     3.096992
 C     1.398208    -3.133512     3.096992
 C     2.548077    -2.298083     3.096992
 C     3.412216     0.361466     3.096992
 C     2.973006     1.713218     3.096992
 C     2.975638    -1.712521     1.853068
 C     3.413936    -0.363578     1.853068
 C     2.548227     2.300802     1.853068
 C     1.400747     3.134494     1.853068
 C    -1.400747     3.134494     1.853068
 C    -2.548227     2.300802     1.853068
 C    -3.413936    -0.363578     1.853068
 C    -2.975638    -1.712521     1.853068
 C    -0.709181    -3.359198     1.853068
 C     0.709181    -3.359198     1.853068
 C     0.717111     3.373395     0.615193
 C    -0.717111     3.373395     0.615193
 C     1.402677    -3.150641     0.615193
 C     2.562987    -2.307626     0.615193
 C     3.429889     0.360423     0.615193
 C     2.986690     1.724450     0.615193
 C    -2.986690     1.724450     0.615193
 C    -3.429889     0.360423     0.615193
 C    -2.562987    -2.307626     0.615193
 C    -1.402677    -3.150641     0.615193
 C     2.986690    -1.724450    -0.615193
 C     3.429889    -0.360423    -0.615193
 C     2.562987     2.307626    -0.615193
 C     1.402677     3.150641    -0.615193
 C    -1.402677     3.150641    -0.615193
 C    -2.562987     2.307626    -0.615193
 C    -3.429889    -0.360423    -0.615193
 C    -2.986690    -1.724450    -0.615193
 C    -0.717111    -3.373395    -0.615193
 C     0.717111    -3.373395    -0.615193
 C     0.709181     3.359198    -1.853068
 C    -0.709181     3.359198    -1.853068
 C    -2.975638     1.712521    -1.853068
 C    -3.413936     0.363578    -1.853068
 C    -2.548227    -2.300802    -1.853068
 C    -1.400747    -3.134494    -1.853068
 C     1.400747    -3.134494    -1.853068
 C     2.548227    -2.300802    -1.853068
 C     3.413936     0.363578    -1.853068
 C     2.975638     1.712521    -1.853068
 C     2.973006    -1.713218    -3.096992
 C     3.412216    -0.361466    -3.096992
 C     2.548077     2.298083    -3.096992
 C     1.398208     3.133512    -3.096992
 C    -1.398208     3.133512    -3.096992
 C    -2.548077     2.298083    -3.096992
 C    -3.412216    -0.361466    -3.096992
 C    -2.973006    -1.713218    -3.096992
 C    -0.710658    -3.356910    -3.096992
 C     0.710658    -3.356910    -3.096992
 C     1.395127    -3.148384    -4.334297
 C     2.563173    -2.299749    -4.334297
 C     3.425409     0.353940    -4.334297
 C     2.979255     1.727061    -4.334297
 C     0.721892     3.367131    -4.334297
 C    -0.721892     3.367131    -4.334297
 C    -2.979255     1.727061    -4.334297
 C    -3.425409     0.353940    -4.334297
 C    -2.563173    -2.299749    -4.334297
 C    -1.395127    -3.148384    -4.334297
 C     3.004982    -1.729814    -5.566743
 C     3.447840    -0.366835    -5.566743
 C     2.573741     2.323365    -5.566743
 C     1.414322     3.165733    -5.566743
 C    -1.414322     3.165733    -5.566743
 C    -2.573741     2.323365    -5.566743
 C    -3.447840    -0.366835    -5.566743
 C    -3.004982    -1.729814    -5.566743
 C    -0.716561    -3.392449    -5.566743
 C     0.716561    -3.392449    -5.566743
 C     0.683801     3.471830    -6.777129
 C    -0.683801     3.471830    -6.777129
 C    -3.090600     1.723188    -6.777129
 C    -3.513213     0.422521    -6.777129
 C    -2.593897    -2.406841    -6.777129
 C    -1.487484    -3.210698    -6.777129
 C     1.487484    -3.210698    -6.777129
 C     2.593897    -2.406841    -6.777129
 C     3.513213     0.422521    -6.777129
 C     3.090600     1.723188    -6.777129
 H     1.218632     3.582349    -7.714212
 H    -1.218632     3.582349    -7.714212
 H    -3.030438     2.265995    -7.714212
 H    -3.783594    -0.051981    -7.714212
 H    -3.091546    -2.181887    -7.714212
 H    -1.119758    -3.614475    -7.714212
 H     1.119758    -3.614475    -7.714212
 H     3.091546    -2.181887    -7.714212
 H     3.783594    -0.051981    -7.714212
 H     3.030438     2.265995    -7.714212
 N     0.000000     0.375353     2.135519
 N     0.000000    -0.006706     1.083184
 N     0.000000    -0.737295     0.000000
 N     0.000000    -0.006706    -1.083184
 N     0.000000     0.375353    -2.135519
